CANA_VOLG_VLL.Txt

SYMMETRICAL COMPONENT PHASE-PHASE VOLTAGES BY BUS (for 3-phase buses)

Bus          Mag:   V1 (kV)    p.u.     V2 (kV)   %V2/V1    V0 (kV)    %V0/V1

sourcebus        68.2     0.9884  2.892E-008  4.241E-008 5.457E-015 8.001E-015
bus_hv_1         68.2     0.9884  2.892E-008  4.241E-008 9.095E-015 1.334E-014
bus_hv_2         68.2     0.9884  2.892E-008  4.241E-008 5.145E-015 7.544E-015
bus_hv_3         68.2     0.9884  2.892E-008  4.241E-008 9.796E-015 1.436E-014
bus_mv_4           12     0.9621  5.857E-009  4.882E-008 1.655E-015 1.38E-014
bus_mv_5           12     0.9621  5.857E-009  4.882E-008 2.274E-015 1.895E-014
bus_mv_6           12     0.9621  5.857E-009  4.882E-008 2.274E-015 1.895E-014
bus_mv_7           12     0.9619  5.856E-009  4.882E-008 1.137E-015 9.478E-015
bus_mv_10       11.99     0.9617  5.855E-009  4.882E-008 1.819E-015 1.517E-014
bus_mv_11       11.99     0.9617  5.855E-009  4.882E-008 1.819E-015 1.517E-014
bus_mv_12       11.99     0.9615  5.854E-009  4.882E-008 1.224E-015 1.021E-014
bus_mv_13       11.99     0.9615  5.854E-009  4.882E-008 1.819E-015 1.517E-014
bus_mv_14       11.99     0.9613  5.852E-009  4.882E-008 1.364E-015 1.138E-014
bus_mv_15       11.99     0.9613  5.852E-009  4.882E-008 1.819E-015 1.517E-014
bus_mv_16       11.99     0.9613  5.852E-009  4.882E-008 1.438E-015  1.2E-014
bus_mv_41       11.99     0.9612  5.851E-009  4.882E-008 1.592E-015 1.328E-014
bus_mv_17       11.99     0.9613  5.852E-009  4.882E-008 1.875E-015 1.564E-014
bus_mv_18       11.99     0.9613  5.852E-009  4.882E-008 1.364E-015 1.138E-014
bus_mv_19       11.99     0.9613  5.852E-009  4.882E-008 1.592E-015 1.328E-014
bus_mv_20       11.99     0.9613  5.852E-009  4.882E-008 1.364E-015 1.138E-014
bus_mv_21       11.99     0.9613  5.852E-009  4.882E-008 1.438E-015  1.2E-014
bus_mv_22       11.99     0.9613  5.852E-009  4.882E-008 2.319E-015 1.934E-014
bus_mv_23       11.99     0.9613  5.852E-009  4.882E-008 1.364E-015 1.138E-014
bus_mv_24       11.99     0.9613  5.852E-009  4.882E-008 2.239E-015 1.868E-014
bus_mv_25       11.99     0.9613  5.852E-009  4.882E-008 1.819E-015 1.517E-014
bus_mv_26           0          0          0          0         0         0
bus_mv_27           0          0          0          0         0         0
bus_mv_28           0          0          0          0         0         0
bus_mv_29           0          0          0          0         0         0
bus_mv_30           0          0          0          0         0         0
bus_mv_31           0          0          0          0         0         0
bus_mv_32           0          0          0          0         0         0
bus_mv_33           0          0          0          0         0         0
bus_mv_35           0          0          0          0         0         0
bus_mv_34           0          0          0          0         0         0
bus_mv_36           0          0          0          0         0         0
bus_mv_37           0          0          0          0         0         0
bus_mv_38           0          0          0          0         0         0
bus_mv_39           0          0          0          0         0         0
bus_mv_40           0          0          0          0         0         0
bus_mv_42       11.99     0.9612  5.851E-009  4.882E-008 2.096E-015 1.749E-014
bus_mv_43       11.98      0.961  5.85E-009  4.882E-008 1.017E-015 8.485E-015
bus_mv_44       11.98      0.961  5.85E-009  4.882E-008 1.655E-015 1.381E-014
bus_mv_45       11.98     0.9609  5.849E-009  4.882E-008 1.224E-015 1.022E-014
bus_mv_46       11.98      0.961  5.85E-009  4.882E-008 1.875E-015 1.565E-014
bus_mv_47       11.98     0.9607  5.848E-009  4.882E-008 1.364E-015 1.139E-014
bus_mv_48       11.98     0.9607  5.848E-009  4.882E-008 2.274E-015 1.898E-014
bus_mv_49       11.98     0.9607  5.848E-009  4.882E-008 1.819E-015 1.518E-014
bus_mv_52       11.98     0.9606  5.848E-009  4.882E-008 1.875E-015 1.565E-014
bus_mv_50       11.98     0.9607  5.848E-009  4.882E-008 1.655E-015 1.382E-014
bus_mv_51       11.98     0.9607  5.848E-009  4.882E-008 1.819E-015 1.518E-014
bus_mv_53       11.98     0.9606  5.848E-009  4.882E-008 2.034E-015 1.698E-014
bus_mv_54       11.98     0.9604  5.847E-009  4.882E-008 1.819E-015 1.519E-014
bus_mv_55       11.98     0.9604  5.847E-009  4.882E-008 1.137E-015 9.493E-015
bus_mv_58       11.98     0.9603  5.846E-009  4.882E-008 1.64E-015 1.369E-014
bus_mv_56       11.98     0.9604  5.847E-009  4.882E-008 1.819E-015 1.519E-014
bus_mv_57       11.98     0.9604  5.847E-009  4.882E-008 1.819E-015 1.519E-014
bus_mv_59       11.98     0.9603  5.846E-009  4.882E-008 2.319E-015 1.936E-014
bus_mv_65       11.97     0.9603  5.846E-009  4.882E-008 1.364E-015 1.139E-014
bus_mv_60       11.97     0.9603  5.846E-009  4.882E-008 1.875E-015 1.566E-014
bus_mv_62       11.97     0.9603  5.846E-009  4.882E-008 1.364E-015 1.139E-014
bus_mv_61       11.97     0.9603  5.846E-009  4.882E-008 1.224E-015 1.023E-014
bus_mv_63       11.97     0.9603  5.846E-009  4.882E-008 1.875E-015 1.566E-014
bus_mv_64       11.97     0.9603  5.846E-009  4.882E-008 2.319E-015 1.936E-014
bus_mv_66       11.97     0.9602  5.846E-009  4.882E-008 1.819E-015 1.519E-014
bus_mv_68       11.97     0.9602  5.845E-009  4.882E-008 1.364E-015 1.139E-014
bus_mv_67       11.97     0.9602  5.846E-009  4.882E-008 1.819E-015 1.519E-014
bus_mv_69       11.97     0.9602  5.845E-009  4.882E-008 1.017E-015 8.492E-015
bus_mv_70       11.97     0.9601  5.845E-009  4.882E-008 1.438E-015 1.201E-014
bus_mv_71       11.97     0.9601  5.845E-009  4.882E-008 1.592E-015 1.329E-014
bus_mv_72       11.97     0.9601  5.845E-009  4.882E-008 1.655E-015 1.383E-014
bus_mv_73       11.97     0.9601  5.845E-009  4.882E-008 1.819E-015 1.519E-014
bus_mv_74       11.97     0.9601  5.845E-009  4.882E-008 1.819E-015 1.519E-014
bus_mv_75       11.97       0.96  5.844E-009  4.882E-008 1.875E-015 1.566E-014
bus_mv_76       11.97       0.96  5.844E-009  4.882E-008 1.875E-015 1.566E-014
bus_mv_80       11.97       0.96  5.844E-009  4.882E-008 1.438E-015 1.201E-014
bus_mv_77       11.97       0.96  5.844E-009  4.882E-008 1.592E-015 1.33E-014
bus_mv_79       11.97       0.96  5.844E-009  4.882E-008 1.592E-015 1.33E-014
bus_mv_78       11.97       0.96  5.844E-009  4.882E-008 1.364E-015 1.14E-014
bus_mv_81       11.97       0.96  5.844E-009  4.882E-008 1.819E-015 1.519E-014
bus_mv_82       11.97       0.96  5.844E-009  4.882E-008 1.364E-015 1.14E-014
bus_mv_83       11.97       0.96  5.844E-009  4.882E-008 1.456E-015 1.216E-014
bus_mv_84       11.97       0.96  5.844E-009  4.882E-008 1.364E-015 1.14E-014
bus_mv_85       11.97       0.96  5.844E-009  4.882E-008 1.875E-015 1.566E-014
bus_mv_86       11.97       0.96  5.844E-009  4.882E-008 1.875E-015 1.566E-014
bus_mv_homs     12.18     0.9771     6E-009  4.924E-008 1.364E-015 1.12E-014
bus_mv_umed     12.18     0.9771     6E-009  4.924E-008 1.224E-015 1.005E-014
bus_lv_8       0.2269     0.9454  1.174E-010  5.174E-008 3.337E-017 1.471E-014
bus_lv_9       0.2269     0.9454  1.174E-010  5.174E-008 3.337E-017 1.471E-014
bus_lv_87      0.2268      0.945  1.174E-010  5.174E-008 2.665E-017 1.175E-014
bus_lv_88      0.2268     0.9449  1.173E-010  5.174E-008 3.02E-017 1.332E-014
bus_lv_89      0.2267     0.9447  1.173E-010  5.174E-008 3.178E-017 1.402E-014
bus_lv_90      0.2267     0.9446  1.173E-010  5.174E-008 2.562E-017 1.13E-014
bus_lv_91      0.2267     0.9446  1.173E-010  5.174E-008 2.711E-017 1.196E-014
bus_lv_92      0.2267     0.9446  1.173E-010  5.174E-008 2.01E-017 8.865E-015
bus_lv_93      0.2267     0.9446  1.173E-010  5.174E-008 2.842E-017 1.254E-014
bus_lv_94      0.2267     0.9446  1.173E-010  5.174E-008 3.02E-017 1.332E-014
bus_lv_95           0          0          0          0         0         0
bus_lv_96           0          0          0          0         0         0
bus_lv_97           0          0          0          0         0         0
bus_lv_98           0          0          0          0         0         0
bus_lv_99           0          0          0          0         0         0
bus_lv_100          0          0          0          0         0         0
bus_lv_101          0          0          0          0         0         0
bus_lv_102          0          0          0          0         0         0
bus_lv_103          0          0          0          0         0         0
bus_lv_104     0.2267     0.9445  1.173E-010  5.174E-008 3.02E-017 1.332E-014
bus_lv_105     0.2266     0.9443  1.173E-010  5.174E-008 2.139E-017 9.438E-015
bus_lv_106     0.2266     0.9443  1.173E-010  5.174E-008 2.132E-017 9.405E-015
bus_lv_107     0.2266      0.944  1.172E-010  5.174E-008 3.02E-017 1.333E-014
bus_lv_108     0.2266      0.944  1.172E-010  5.174E-008 3.02E-017 1.333E-014
bus_lv_109     0.2266      0.944  1.172E-010  5.174E-008 2.842E-017 1.254E-014
bus_lv_110     0.2265     0.9439  1.172E-010  5.174E-008 2.139E-017 9.442E-015
bus_lv_111     0.2265     0.9438  1.172E-010  5.174E-008 2.665E-017 1.176E-014
bus_lv_112     0.2265     0.9438  1.172E-010  5.174E-008 2.665E-017 1.176E-014
bus_lv_113     0.2265     0.9437  1.172E-010  5.174E-008 1.599E-017 7.058E-015
bus_lv_114     0.2265     0.9436  1.172E-010  5.174E-008 1.243E-017 5.49E-015
bus_lv_115     0.2265     0.9436  1.172E-010  5.174E-008 1.243E-017 5.491E-015
bus_lv_116     0.2265     0.9436  1.172E-010  5.174E-008 1.599E-017 7.059E-015
bus_lv_117     0.2265     0.9436  1.172E-010  5.174E-008 2.711E-017 1.197E-014
bus_lv_118     0.2265     0.9436  1.172E-010  5.174E-008 2.711E-017 1.197E-014
bus_lv_119     0.2265     0.9436  1.172E-010  5.174E-008 3.337E-017 1.474E-014
bus_lv_120     0.2265     0.9436  1.172E-010  5.174E-008 2.562E-017 1.131E-014
bus_lv_121     0.2264     0.9435  1.172E-010  5.174E-008 2.139E-017 9.446E-015
bus_lv_122     0.2264     0.9435  1.172E-010  5.174E-008 2.132E-017 9.414E-015
bus_lv_123     0.2264     0.9435  1.172E-010  5.174E-008 8.882E-018 3.923E-015
bus_lv_124     0.2264     0.9434  1.171E-010  5.174E-008 2.562E-017 1.131E-014
bus_lv_125     0.2264     0.9433  1.171E-010  5.174E-008 1.421E-017 6.277E-015
bus_lv_126     0.2264     0.9433  1.171E-010  5.174E-008 2.309E-017 1.02E-014
bus_lv_127     0.2237     0.9322  1.157E-010  5.173E-008 3.178E-017 1.42E-014
bus_lv_128     0.2264     0.9434  1.171E-010  5.174E-008 3.02E-017 1.334E-014
bus_lv_129     0.2264     0.9433  1.171E-010  5.174E-008 1.954E-017 8.631E-015
bus_lv_130     0.2264     0.9433  1.171E-010  5.174E-008 3.178E-017 1.404E-014
bus_lv_131     0.2264     0.9433  1.171E-010  5.174E-008 1.243E-017 5.492E-015
